<?xml version="1.0" encoding="UTF-8"?>

<!-- generated on 2025-03-10 15:42:14 by Eclipse SUMO netedit Version 1.19.0
<configuration xmlns:xsi="http://www.w3.org/2001/XMLSchema-instance" xsi:noNamespaceSchemaLocation="http://sumo.dlr.de/xsd/neteditConfiguration.xsd">

    <input>
        <sumo-net-file value="D:\01_路网\sumo4x4_3lane_11su_80m\sumo4x4_3lane_11su.net.xml"/>
    </input>

    <output>
        <output-file value="D:\01_路网\sumo4x4_3lane_11su_80m\sumo4x4_3lane_11su.net.xml"/>
    </output>

    <processing>
        <geometry.min-radius.fix.railways value="false"/>
        <geometry.max-grade.fix value="false"/>
        <offset.disable-normalization value="true"/>
        <lefthand value="0"/>
    </processing>

    <junctions>
        <no-turnarounds value="true"/>
        <junctions.corner-detail value="5"/>
        <junctions.limit-turn-speed value="5.50"/>
        <rectangular-lane-cut value="0"/>
    </junctions>

    <pedestrian>
        <walkingareas value="0"/>
    </pedestrian>

</configuration>
-->

<net version="1.16" junctionCornerDetail="5" limitTurnSpeed="5.50" xmlns:xsi="http://www.w3.org/2001/XMLSchema-instance" xsi:noNamespaceSchemaLocation="http://sumo.dlr.de/xsd/net_file.xsd">

    <location netOffset="0.00,0.00" convBoundary="0.00,0.00,400.00,400.00" origBoundary="-10000000000.00,-10000000000.00,10000000000.00,10000000000.00" projParameter="!"/>

    <edge id=":intersection_1_1_0" function="internal">
        <lane id=":intersection_1_1_0_0" index="0" speed="6.51" length="9.03" shape="72.00,333.60 71.65,331.15 70.60,329.40 68.85,328.35 66.40,328.00"/>
        <lane id=":intersection_1_1_0_1" index="1" speed="7.33" length="11.73" shape="72.00,333.60 71.65,329.75 70.60,327.00 68.85,325.35 66.40,324.80"/>
        <lane id=":intersection_1_1_0_2" index="2" speed="8.10" length="14.57" shape="72.00,333.60 71.65,328.35 70.60,324.60 68.85,322.35 66.40,321.60"/>
    </edge>
    <edge id=":intersection_1_1_3" function="internal">
        <lane id=":intersection_1_1_3_0" index="0" speed="16.95" length="27.37" shape="75.20,333.60 74.70,325.50 73.60,320.00 72.50,314.50 72.00,306.40"/>
        <lane id=":intersection_1_1_3_1" index="1" speed="16.95" length="27.37" shape="75.20,333.60 75.20,306.40"/>
        <lane id=":intersection_1_1_3_2" index="2" speed="16.95" length="27.37" shape="75.20,333.60 75.70,325.50 76.80,320.00 77.90,314.50 78.40,306.40"/>
    </edge>
    <edge id=":intersection_1_1_6" function="internal">
        <lane id=":intersection_1_1_6_0" index="0" speed="11.39" length="29.85" shape="78.40,333.60 79.35,324.15 82.20,317.40 86.95,313.35 93.60,312.00"/>
        <lane id=":intersection_1_1_6_1" index="1" speed="10.88" length="27.14" shape="78.40,333.60 79.35,325.55 82.20,319.80 86.95,316.35 93.60,315.20"/>
        <lane id=":intersection_1_1_6_2" index="2" speed="10.36" length="24.51" shape="78.40,333.60 79.35,326.95 82.20,322.20 86.95,319.35 93.60,318.40"/>
    </edge>
    <edge id=":intersection_1_1_9" function="internal">
        <lane id=":intersection_1_1_9_0" index="0" speed="6.51" length="9.03" shape="93.60,328.00 91.15,328.35 89.40,329.40 88.35,331.15 88.00,333.60"/>
        <lane id=":intersection_1_1_9_1" index="1" speed="7.33" length="11.73" shape="93.60,328.00 89.75,328.35 87.00,329.40 85.35,331.15 84.80,333.60"/>
        <lane id=":intersection_1_1_9_2" index="2" speed="8.10" length="14.57" shape="93.60,328.00 88.35,328.35 84.60,329.40 82.35,331.15 81.60,333.60"/>
    </edge>
    <edge id=":intersection_1_1_12" function="internal">
        <lane id=":intersection_1_1_12_0" index="0" speed="13.89" length="27.37" shape="93.60,324.80 85.50,325.30 80.00,326.40 74.50,327.50 66.40,328.00"/>
        <lane id=":intersection_1_1_12_1" index="1" speed="13.89" length="27.37" shape="93.60,324.80 66.40,324.80"/>
        <lane id=":intersection_1_1_12_2" index="2" speed="13.89" length="27.37" shape="93.60,324.80 85.50,324.30 80.00,323.20 74.50,322.10 66.40,321.60"/>
    </edge>
    <edge id=":intersection_1_1_15" function="internal">
        <lane id=":intersection_1_1_15_0" index="0" speed="11.39" length="29.85" shape="93.60,321.60 84.15,320.65 77.40,317.80 73.35,313.05 72.00,306.40"/>
        <lane id=":intersection_1_1_15_1" index="1" speed="10.88" length="27.14" shape="93.60,321.60 85.55,320.65 79.80,317.80 76.35,313.05 75.20,306.40"/>
        <lane id=":intersection_1_1_15_2" index="2" speed="10.36" length="24.51" shape="93.60,321.60 86.95,320.65 82.20,317.80 79.35,313.05 78.40,306.40"/>
    </edge>
    <edge id=":intersection_1_1_18" function="internal">
        <lane id=":intersection_1_1_18_0" index="0" speed="6.51" length="9.03" shape="88.00,306.40 88.35,308.85 89.40,310.60 91.15,311.65 93.60,312.00"/>
        <lane id=":intersection_1_1_18_1" index="1" speed="7.33" length="11.73" shape="88.00,306.40 88.35,310.25 89.40,313.00 91.15,314.65 93.60,315.20"/>
        <lane id=":intersection_1_1_18_2" index="2" speed="8.10" length="14.57" shape="88.00,306.40 88.35,311.65 89.40,315.40 91.15,317.65 93.60,318.40"/>
    </edge>
    <edge id=":intersection_1_1_21" function="internal">
        <lane id=":intersection_1_1_21_0" index="0" speed="16.95" length="27.37" shape="84.80,306.40 85.30,314.50 86.40,320.00 87.50,325.50 88.00,333.60"/>
        <lane id=":intersection_1_1_21_1" index="1" speed="16.95" length="27.37" shape="84.80,306.40 84.80,333.60"/>
        <lane id=":intersection_1_1_21_2" index="2" speed="16.95" length="27.37" shape="84.80,306.40 84.30,314.50 83.20,320.00 82.10,325.50 81.60,333.60"/>
    </edge>
    <edge id=":intersection_1_1_24" function="internal">
        <lane id=":intersection_1_1_24_0" index="0" speed="11.39" length="29.85" shape="81.60,306.40 80.65,315.85 77.80,322.60 73.05,326.65 66.40,328.00"/>
        <lane id=":intersection_1_1_24_1" index="1" speed="10.88" length="27.14" shape="81.60,306.40 80.65,314.45 77.80,320.20 73.05,323.65 66.40,324.80"/>
        <lane id=":intersection_1_1_24_2" index="2" speed="10.36" length="24.51" shape="81.60,306.40 80.65,313.05 77.80,317.80 73.05,320.65 66.40,321.60"/>
    </edge>
    <edge id=":intersection_1_1_27" function="internal">
        <lane id=":intersection_1_1_27_0" index="0" speed="6.51" length="9.03" shape="66.40,312.00 68.85,311.65 70.60,310.60 71.65,308.85 72.00,306.40"/>
        <lane id=":intersection_1_1_27_1" index="1" speed="7.33" length="11.73" shape="66.40,312.00 70.25,311.65 73.00,310.60 74.65,308.85 75.20,306.40"/>
        <lane id=":intersection_1_1_27_2" index="2" speed="8.10" length="14.57" shape="66.40,312.00 71.65,311.65 75.40,310.60 77.65,308.85 78.40,306.40"/>
    </edge>
    <edge id=":intersection_1_1_30" function="internal">
        <lane id=":intersection_1_1_30_0" index="0" speed="13.89" length="27.37" shape="66.40,315.20 74.50,314.70 80.00,313.60 85.50,312.50 93.60,312.00"/>
        <lane id=":intersection_1_1_30_1" index="1" speed="13.89" length="27.37" shape="66.40,315.20 93.60,315.20"/>
        <lane id=":intersection_1_1_30_2" index="2" speed="13.89" length="27.37" shape="66.40,315.20 74.50,315.70 80.00,316.80 85.50,317.90 93.60,318.40"/>
    </edge>
    <edge id=":intersection_1_1_33" function="internal">
        <lane id=":intersection_1_1_33_0" index="0" speed="11.39" length="29.85" shape="66.40,318.40 75.85,319.35 82.60,322.20 86.65,326.95 88.00,333.60"/>
        <lane id=":intersection_1_1_33_1" index="1" speed="10.88" length="27.14" shape="66.40,318.40 74.45,319.35 80.20,322.20 83.65,326.95 84.80,333.60"/>
        <lane id=":intersection_1_1_33_2" index="2" speed="10.36" length="24.51" shape="66.40,318.40 73.05,319.35 77.80,322.20 80.65,326.95 81.60,333.60"/>
    </edge>
    <edge id=":intersection_1_2_0" function="internal">
        <lane id=":intersection_1_2_0_0" index="0" speed="6.51" length="9.03" shape="152.00,333.60 151.65,331.15 150.60,329.40 148.85,328.35 146.40,328.00"/>
        <lane id=":intersection_1_2_0_1" index="1" speed="7.33" length="11.73" shape="152.00,333.60 151.65,329.75 150.60,327.00 148.85,325.35 146.40,324.80"/>
        <lane id=":intersection_1_2_0_2" index="2" speed="8.10" length="14.57" shape="152.00,333.60 151.65,328.35 150.60,324.60 148.85,322.35 146.40,321.60"/>
    </edge>
    <edge id=":intersection_1_2_3" function="internal">
        <lane id=":intersection_1_2_3_0" index="0" speed="16.95" length="27.37" shape="155.20,333.60 154.70,325.50 153.60,320.00 152.50,314.50 152.00,306.40"/>
        <lane id=":intersection_1_2_3_1" index="1" speed="16.95" length="27.37" shape="155.20,333.60 155.20,306.40"/>
        <lane id=":intersection_1_2_3_2" index="2" speed="16.95" length="27.37" shape="155.20,333.60 155.70,325.50 156.80,320.00 157.90,314.50 158.40,306.40"/>
    </edge>
    <edge id=":intersection_1_2_6" function="internal">
        <lane id=":intersection_1_2_6_0" index="0" speed="11.39" length="29.85" shape="158.40,333.60 159.35,324.15 162.20,317.40 166.95,313.35 173.60,312.00"/>
        <lane id=":intersection_1_2_6_1" index="1" speed="10.88" length="27.14" shape="158.40,333.60 159.35,325.55 162.20,319.80 166.95,316.35 173.60,315.20"/>
        <lane id=":intersection_1_2_6_2" index="2" speed="10.36" length="24.51" shape="158.40,333.60 159.35,326.95 162.20,322.20 166.95,319.35 173.60,318.40"/>
    </edge>
    <edge id=":intersection_1_2_9" function="internal">
        <lane id=":intersection_1_2_9_0" index="0" speed="6.51" length="9.03" shape="173.60,328.00 171.15,328.35 169.40,329.40 168.35,331.15 168.00,333.60"/>
        <lane id=":intersection_1_2_9_1" index="1" speed="7.33" length="11.73" shape="173.60,328.00 169.75,328.35 167.00,329.40 165.35,331.15 164.80,333.60"/>
        <lane id=":intersection_1_2_9_2" index="2" speed="8.10" length="14.57" shape="173.60,328.00 168.35,328.35 164.60,329.40 162.35,331.15 161.60,333.60"/>
    </edge>
    <edge id=":intersection_1_2_12" function="internal">
        <lane id=":intersection_1_2_12_0" index="0" speed="13.89" length="27.37" shape="173.60,324.80 165.50,325.30 160.00,326.40 154.50,327.50 146.40,328.00"/>
        <lane id=":intersection_1_2_12_1" index="1" speed="13.89" length="27.37" shape="173.60,324.80 146.40,324.80"/>
        <lane id=":intersection_1_2_12_2" index="2" speed="13.89" length="27.37" shape="173.60,324.80 165.50,324.30 160.00,323.20 154.50,322.10 146.40,321.60"/>
    </edge>
    <edge id=":intersection_1_2_15" function="internal">
        <lane id=":intersection_1_2_15_0" index="0" speed="11.39" length="29.85" shape="173.60,321.60 164.15,320.65 157.40,317.80 153.35,313.05 152.00,306.40"/>
        <lane id=":intersection_1_2_15_1" index="1" speed="10.88" length="27.14" shape="173.60,321.60 165.55,320.65 159.80,317.80 156.35,313.05 155.20,306.40"/>
        <lane id=":intersection_1_2_15_2" index="2" speed="10.36" length="24.51" shape="173.60,321.60 166.95,320.65 162.20,317.80 159.35,313.05 158.40,306.40"/>
    </edge>
    <edge id=":intersection_1_2_18" function="internal">
        <lane id=":intersection_1_2_18_0" index="0" speed="6.51" length="9.03" shape="168.00,306.40 168.35,308.85 169.40,310.60 171.15,311.65 173.60,312.00"/>
        <lane id=":intersection_1_2_18_1" index="1" speed="7.33" length="11.73" shape="168.00,306.40 168.35,310.25 169.40,313.00 171.15,314.65 173.60,315.20"/>
        <lane id=":intersection_1_2_18_2" index="2" speed="8.10" length="14.57" shape="168.00,306.40 168.35,311.65 169.40,315.40 171.15,317.65 173.60,318.40"/>
    </edge>
    <edge id=":intersection_1_2_21" function="internal">
        <lane id=":intersection_1_2_21_0" index="0" speed="16.95" length="27.37" shape="164.80,306.40 165.30,314.50 166.40,320.00 167.50,325.50 168.00,333.60"/>
        <lane id=":intersection_1_2_21_1" index="1" speed="16.95" length="27.37" shape="164.80,306.40 164.80,333.60"/>
        <lane id=":intersection_1_2_21_2" index="2" speed="16.95" length="27.37" shape="164.80,306.40 164.30,314.50 163.20,320.00 162.10,325.50 161.60,333.60"/>
    </edge>
    <edge id=":intersection_1_2_24" function="internal">
        <lane id=":intersection_1_2_24_0" index="0" speed="11.39" length="29.85" shape="161.60,306.40 160.65,315.85 157.80,322.60 153.05,326.65 146.40,328.00"/>
        <lane id=":intersection_1_2_24_1" index="1" speed="10.88" length="27.14" shape="161.60,306.40 160.65,314.45 157.80,320.20 153.05,323.65 146.40,324.80"/>
        <lane id=":intersection_1_2_24_2" index="2" speed="10.36" length="24.51" shape="161.60,306.40 160.65,313.05 157.80,317.80 153.05,320.65 146.40,321.60"/>
    </edge>
    <edge id=":intersection_1_2_27" function="internal">
        <lane id=":intersection_1_2_27_0" index="0" speed="6.51" length="9.03" shape="146.40,312.00 148.85,311.65 150.60,310.60 151.65,308.85 152.00,306.40"/>
        <lane id=":intersection_1_2_27_1" index="1" speed="7.33" length="11.73" shape="146.40,312.00 150.25,311.65 153.00,310.60 154.65,308.85 155.20,306.40"/>
        <lane id=":intersection_1_2_27_2" index="2" speed="8.10" length="14.57" shape="146.40,312.00 151.65,311.65 155.40,310.60 157.65,308.85 158.40,306.40"/>
    </edge>
    <edge id=":intersection_1_2_30" function="internal">
        <lane id=":intersection_1_2_30_0" index="0" speed="13.89" length="27.37" shape="146.40,315.20 154.50,314.70 160.00,313.60 165.50,312.50 173.60,312.00"/>
        <lane id=":intersection_1_2_30_1" index="1" speed="13.89" length="27.37" shape="146.40,315.20 173.60,315.20"/>
        <lane id=":intersection_1_2_30_2" index="2" speed="13.89" length="27.37" shape="146.40,315.20 154.50,315.70 160.00,316.80 165.50,317.90 173.60,318.40"/>
    </edge>
    <edge id=":intersection_1_2_33" function="internal">
        <lane id=":intersection_1_2_33_0" index="0" speed="11.39" length="29.85" shape="146.40,318.40 155.85,319.35 162.60,322.20 166.65,326.95 168.00,333.60"/>
        <lane id=":intersection_1_2_33_1" index="1" speed="10.88" length="27.14" shape="146.40,318.40 154.45,319.35 160.20,322.20 163.65,326.95 164.80,333.60"/>
        <lane id=":intersection_1_2_33_2" index="2" speed="10.36" length="24.51" shape="146.40,318.40 153.05,319.35 157.80,322.20 160.65,326.95 161.60,333.60"/>
    </edge>
    <edge id=":intersection_1_3_0" function="internal">
        <lane id=":intersection_1_3_0_0" index="0" speed="6.51" length="9.03" shape="232.00,333.60 231.65,331.15 230.60,329.40 228.85,328.35 226.40,328.00"/>
        <lane id=":intersection_1_3_0_1" index="1" speed="7.33" length="11.73" shape="232.00,333.60 231.65,329.75 230.60,327.00 228.85,325.35 226.40,324.80"/>
        <lane id=":intersection_1_3_0_2" index="2" speed="8.10" length="14.57" shape="232.00,333.60 231.65,328.35 230.60,324.60 228.85,322.35 226.40,321.60"/>
    </edge>
    <edge id=":intersection_1_3_3" function="internal">
        <lane id=":intersection_1_3_3_0" index="0" speed="16.95" length="27.37" shape="235.20,333.60 234.70,325.50 233.60,320.00 232.50,314.50 232.00,306.40"/>
        <lane id=":intersection_1_3_3_1" index="1" speed="16.95" length="27.37" shape="235.20,333.60 235.20,306.40"/>
        <lane id=":intersection_1_3_3_2" index="2" speed="16.95" length="27.37" shape="235.20,333.60 235.70,325.50 236.80,320.00 237.90,314.50 238.40,306.40"/>
    </edge>
    <edge id=":intersection_1_3_6" function="internal">
        <lane id=":intersection_1_3_6_0" index="0" speed="11.39" length="29.85" shape="238.40,333.60 239.35,324.15 242.20,317.40 246.95,313.35 253.60,312.00"/>
        <lane id=":intersection_1_3_6_1" index="1" speed="10.88" length="27.14" shape="238.40,333.60 239.35,325.55 242.20,319.80 246.95,316.35 253.60,315.20"/>
        <lane id=":intersection_1_3_6_2" index="2" speed="10.36" length="24.51" shape="238.40,333.60 239.35,326.95 242.20,322.20 246.95,319.35 253.60,318.40"/>
    </edge>
    <edge id=":intersection_1_3_9" function="internal">
        <lane id=":intersection_1_3_9_0" index="0" speed="6.51" length="9.03" shape="253.60,328.00 251.15,328.35 249.40,329.40 248.35,331.15 248.00,333.60"/>
        <lane id=":intersection_1_3_9_1" index="1" speed="7.33" length="11.73" shape="253.60,328.00 249.75,328.35 247.00,329.40 245.35,331.15 244.80,333.60"/>
        <lane id=":intersection_1_3_9_2" index="2" speed="8.10" length="14.57" shape="253.60,328.00 248.35,328.35 244.60,329.40 242.35,331.15 241.60,333.60"/>
    </edge>
    <edge id=":intersection_1_3_12" function="internal">
        <lane id=":intersection_1_3_12_0" index="0" speed="13.89" length="27.37" shape="253.60,324.80 245.50,325.30 240.00,326.40 234.50,327.50 226.40,328.00"/>
        <lane id=":intersection_1_3_12_1" index="1" speed="13.89" length="27.37" shape="253.60,324.80 226.40,324.80"/>
        <lane id=":intersection_1_3_12_2" index="2" speed="13.89" length="27.37" shape="253.60,324.80 245.50,324.30 240.00,323.20 234.50,322.10 226.40,321.60"/>
    </edge>
    <edge id=":intersection_1_3_15" function="internal">
        <lane id=":intersection_1_3_15_0" index="0" speed="11.39" length="29.85" shape="253.60,321.60 244.15,320.65 237.40,317.80 233.35,313.05 232.00,306.40"/>
        <lane id=":intersection_1_3_15_1" index="1" speed="10.88" length="27.14" shape="253.60,321.60 245.55,320.65 239.80,317.80 236.35,313.05 235.20,306.40"/>
        <lane id=":intersection_1_3_15_2" index="2" speed="10.36" length="24.51" shape="253.60,321.60 246.95,320.65 242.20,317.80 239.35,313.05 238.40,306.40"/>
    </edge>
    <edge id=":intersection_1_3_18" function="internal">
        <lane id=":intersection_1_3_18_0" index="0" speed="6.51" length="9.03" shape="248.00,306.40 248.35,308.85 249.40,310.60 251.15,311.65 253.60,312.00"/>
        <lane id=":intersection_1_3_18_1" index="1" speed="7.33" length="11.73" shape="248.00,306.40 248.35,310.25 249.40,313.00 251.15,314.65 253.60,315.20"/>
        <lane id=":intersection_1_3_18_2" index="2" speed="8.10" length="14.57" shape="248.00,306.40 248.35,311.65 249.40,315.40 251.15,317.65 253.60,318.40"/>
    </edge>
    <edge id=":intersection_1_3_21" function="internal">
        <lane id=":intersection_1_3_21_0" index="0" speed="16.95" length="27.37" shape="244.80,306.40 245.30,314.50 246.40,320.00 247.50,325.50 248.00,333.60"/>
        <lane id=":intersection_1_3_21_1" index="1" speed="16.95" length="27.37" shape="244.80,306.40 244.80,333.60"/>
        <lane id=":intersection_1_3_21_2" index="2" speed="16.95" length="27.37" shape="244.80,306.40 244.30,314.50 243.20,320.00 242.10,325.50 241.60,333.60"/>
    </edge>
    <edge id=":intersection_1_3_24" function="internal">
        <lane id=":intersection_1_3_24_0" index="0" speed="11.39" length="29.85" shape="241.60,306.40 240.65,315.85 237.80,322.60 233.05,326.65 226.40,328.00"/>
        <lane id=":intersection_1_3_24_1" index="1" speed="10.88" length="27.14" shape="241.60,306.40 240.65,314.45 237.80,320.20 233.05,323.65 226.40,324.80"/>
        <lane id=":intersection_1_3_24_2" index="2" speed="10.36" length="24.51" shape="241.60,306.40 240.65,313.05 237.80,317.80 233.05,320.65 226.40,321.60"/>
    </edge>
    <edge id=":intersection_1_3_27" function="internal">
        <lane id=":intersection_1_3_27_0" index="0" speed="6.51" length="9.03" shape="226.40,312.00 228.85,311.65 230.60,310.60 231.65,308.85 232.00,306.40"/>
        <lane id=":intersection_1_3_27_1" index="1" speed="7.33" length="11.73" shape="226.40,312.00 230.25,311.65 233.00,310.60 234.65,308.85 235.20,306.40"/>
        <lane id=":intersection_1_3_27_2" index="2" speed="8.10" length="14.57" shape="226.40,312.00 231.65,311.65 235.40,310.60 237.65,308.85 238.40,306.40"/>
    </edge>
    <edge id=":intersection_1_3_30" function="internal">
        <lane id=":intersection_1_3_30_0" index="0" speed="13.89" length="27.37" shape="226.40,315.20 234.50,314.70 240.00,313.60 245.50,312.50 253.60,312.00"/>
        <lane id=":intersection_1_3_30_1" index="1" speed="13.89" length="27.37" shape="226.40,315.20 253.60,315.20"/>
        <lane id=":intersection_1_3_30_2" index="2" speed="13.89" length="27.37" shape="226.40,315.20 234.50,315.70 240.00,316.80 245.50,317.90 253.60,318.40"/>
    </edge>
    <edge id=":intersection_1_3_33" function="internal">
        <lane id=":intersection_1_3_33_0" index="0" speed="11.39" length="29.85" shape="226.40,318.40 235.85,319.35 242.60,322.20 246.65,326.95 248.00,333.60"/>
        <lane id=":intersection_1_3_33_1" index="1" speed="10.88" length="27.14" shape="226.40,318.40 234.45,319.35 240.20,322.20 243.65,326.95 244.80,333.60"/>
        <lane id=":intersection_1_3_33_2" index="2" speed="10.36" length="24.51" shape="226.40,318.40 233.05,319.35 237.80,322.20 240.65,326.95 241.60,333.60"/>
    </edge>
    <edge id=":intersection_1_4_0" function="internal">
        <lane id=":intersection_1_4_0_0" index="0" speed="6.51" length="9.03" shape="312.00,333.60 311.65,331.15 310.60,329.40 308.85,328.35 306.40,328.00"/>
        <lane id=":intersection_1_4_0_1" index="1" speed="7.33" length="11.73" shape="312.00,333.60 311.65,329.75 310.60,327.00 308.85,325.35 306.40,324.80"/>
        <lane id=":intersection_1_4_0_2" index="2" speed="8.10" length="14.57" shape="312.00,333.60 311.65,328.35 310.60,324.60 308.85,322.35 306.40,321.60"/>
    </edge>
    <edge id=":intersection_1_4_3" function="internal">
        <lane id=":intersection_1_4_3_0" index="0" speed="13.89" length="27.37" shape="315.20,333.60 314.70,325.50 313.60,320.00 312.50,314.50 312.00,306.40"/>
        <lane id=":intersection_1_4_3_1" index="1" speed="13.89" length="27.37" shape="315.20,333.60 315.20,306.40"/>
        <lane id=":intersection_1_4_3_2" index="2" speed="13.89" length="27.37" shape="315.20,333.60 315.70,325.50 316.80,320.00 317.90,314.50 318.40,306.40"/>
    </edge>
    <edge id=":intersection_1_4_6" function="internal">
        <lane id=":intersection_1_4_6_0" index="0" speed="11.39" length="29.85" shape="318.40,333.60 319.35,324.15 322.20,317.40 326.95,313.35 333.60,312.00"/>
        <lane id=":intersection_1_4_6_1" index="1" speed="10.88" length="27.14" shape="318.40,333.60 319.35,325.55 322.20,319.80 326.95,316.35 333.60,315.20"/>
        <lane id=":intersection_1_4_6_2" index="2" speed="10.36" length="24.51" shape="318.40,333.60 319.35,326.95 322.20,322.20 326.95,319.35 333.60,318.40"/>
    </edge>
    <edge id=":intersection_1_4_9" function="internal">
        <lane id=":intersection_1_4_9_0" index="0" speed="6.51" length="9.03" shape="333.60,328.00 331.15,328.35 329.40,329.40 328.35,331.15 328.00,333.60"/>
        <lane id=":intersection_1_4_9_1" index="1" speed="7.33" length="11.73" shape="333.60,328.00 329.75,328.35 327.00,329.40 325.35,331.15 324.80,333.60"/>
        <lane id=":intersection_1_4_9_2" index="2" speed="8.10" length="14.57" shape="333.60,328.00 328.35,328.35 324.60,329.40 322.35,331.15 321.60,333.60"/>
    </edge>
    <edge id=":intersection_1_4_12" function="internal">
        <lane id=":intersection_1_4_12_0" index="0" speed="13.89" length="27.37" shape="333.60,324.80 325.50,325.30 320.00,326.40 314.50,327.50 306.40,328.00"/>
        <lane id=":intersection_1_4_12_1" index="1" speed="13.89" length="27.37" shape="333.60,324.80 306.40,324.80"/>
        <lane id=":intersection_1_4_12_2" index="2" speed="13.89" length="27.37" shape="333.60,324.80 325.50,324.30 320.00,323.20 314.50,322.10 306.40,321.60"/>
    </edge>
    <edge id=":intersection_1_4_15" function="internal">
        <lane id=":intersection_1_4_15_0" index="0" speed="11.39" length="29.85" shape="333.60,321.60 324.15,320.65 317.40,317.80 313.35,313.05 312.00,306.40"/>
        <lane id=":intersection_1_4_15_1" index="1" speed="10.88" length="27.14" shape="333.60,321.60 325.55,320.65 319.80,317.80 316.35,313.05 315.20,306.40"/>
        <lane id=":intersection_1_4_15_2" index="2" speed="10.36" length="24.51" shape="333.60,321.60 326.95,320.65 322.20,317.80 319.35,313.05 318.40,306.40"/>
    </edge>
    <edge id=":intersection_1_4_18" function="internal">
        <lane id=":intersection_1_4_18_0" index="0" speed="6.51" length="9.03" shape="328.00,306.40 328.35,308.85 329.40,310.60 331.15,311.65 333.60,312.00"/>
        <lane id=":intersection_1_4_18_1" index="1" speed="7.33" length="11.73" shape="328.00,306.40 328.35,310.25 329.40,313.00 331.15,314.65 333.60,315.20"/>
        <lane id=":intersection_1_4_18_2" index="2" speed="8.10" length="14.57" shape="328.00,306.40 328.35,311.65 329.40,315.40 331.15,317.65 333.60,318.40"/>
    </edge>
    <edge id=":intersection_1_4_21" function="internal">
        <lane id=":intersection_1_4_21_0" index="0" speed="13.89" length="27.37" shape="324.80,306.40 325.30,314.50 326.40,320.00 327.50,325.50 328.00,333.60"/>
        <lane id=":intersection_1_4_21_1" index="1" speed="13.89" length="27.37" shape="324.80,306.40 324.80,333.60"/>
        <lane id=":intersection_1_4_21_2" index="2" speed="13.89" length="27.37" shape="324.80,306.40 324.30,314.50 323.20,320.00 322.10,325.50 321.60,333.60"/>
    </edge>
    <edge id=":intersection_1_4_24" function="internal">
        <lane id=":intersection_1_4_24_0" index="0" speed="11.39" length="29.85" shape="321.60,306.40 320.65,315.85 317.80,322.60 313.05,326.65 306.40,328.00"/>
        <lane id=":intersection_1_4_24_1" index="1" speed="10.88" length="27.14" shape="321.60,306.40 320.65,314.45 317.80,320.20 313.05,323.65 306.40,324.80"/>
        <lane id=":intersection_1_4_24_2" index="2" speed="10.36" length="24.51" shape="321.60,306.40 320.65,313.05 317.80,317.80 313.05,320.65 306.40,321.60"/>
    </edge>
    <edge id=":intersection_1_4_27" function="internal">
        <lane id=":intersection_1_4_27_0" index="0" speed="6.51" length="9.03" shape="306.40,312.00 308.85,311.65 310.60,310.60 311.65,308.85 312.00,306.40"/>
        <lane id=":intersection_1_4_27_1" index="1" speed="7.33" length="11.73" shape="306.40,312.00 310.25,311.65 313.00,310.60 314.65,308.85 315.20,306.40"/>
        <lane id=":intersection_1_4_27_2" index="2" speed="8.10" length="14.57" shape="306.40,312.00 311.65,311.65 315.40,310.60 317.65,308.85 318.40,306.40"/>
    </edge>
    <edge id=":intersection_1_4_30" function="internal">
        <lane id=":intersection_1_4_30_0" index="0" speed="13.89" length="27.37" shape="306.40,315.20 314.50,314.70 320.00,313.60 325.50,312.50 333.60,312.00"/>
        <lane id=":intersection_1_4_30_1" index="1" speed="13.89" length="27.37" shape="306.40,315.20 333.60,315.20"/>
        <lane id=":intersection_1_4_30_2" index="2" speed="13.89" length="27.37" shape="306.40,315.20 314.50,315.70 320.00,316.80 325.50,317.90 333.60,318.40"/>
    </edge>
    <edge id=":intersection_1_4_33" function="internal">
        <lane id=":intersection_1_4_33_0" index="0" speed="11.39" length="29.85" shape="306.40,318.40 315.85,319.35 322.60,322.20 326.65,326.95 328.00,333.60"/>
        <lane id=":intersection_1_4_33_1" index="1" speed="10.88" length="27.14" shape="306.40,318.40 314.45,319.35 320.20,322.20 323.65,326.95 324.80,333.60"/>
        <lane id=":intersection_1_4_33_2" index="2" speed="10.36" length="24.51" shape="306.40,318.40 313.05,319.35 317.80,322.20 320.65,326.95 321.60,333.60"/>
    </edge>
    <edge id=":intersection_2_1_0" function="internal">
        <lane id=":intersection_2_1_0_0" index="0" speed="6.51" length="9.03" shape="72.00,253.60 71.65,251.15 70.60,249.40 68.85,248.35 66.40,248.00"/>
        <lane id=":intersection_2_1_0_1" index="1" speed="7.33" length="11.73" shape="72.00,253.60 71.65,249.75 70.60,247.00 68.85,245.35 66.40,244.80"/>
        <lane id=":intersection_2_1_0_2" index="2" speed="8.10" length="14.57" shape="72.00,253.60 71.65,248.35 70.60,244.60 68.85,242.35 66.40,241.60"/>
    </edge>
    <edge id=":intersection_2_1_3" function="internal">
        <lane id=":intersection_2_1_3_0" index="0" speed="20.00" length="27.37" shape="75.20,253.60 74.70,245.50 73.60,240.00 72.50,234.50 72.00,226.40"/>
        <lane id=":intersection_2_1_3_1" index="1" speed="20.00" length="27.37" shape="75.20,253.60 75.20,226.40"/>
        <lane id=":intersection_2_1_3_2" index="2" speed="20.00" length="27.37" shape="75.20,253.60 75.70,245.50 76.80,240.00 77.90,234.50 78.40,226.40"/>
    </edge>
    <edge id=":intersection_2_1_6" function="internal">
        <lane id=":intersection_2_1_6_0" index="0" speed="11.39" length="29.85" shape="78.40,253.60 79.35,244.15 82.20,237.40 86.95,233.35 93.60,232.00"/>
        <lane id=":intersection_2_1_6_1" index="1" speed="10.88" length="27.14" shape="78.40,253.60 79.35,245.55 82.20,239.80 86.95,236.35 93.60,235.20"/>
        <lane id=":intersection_2_1_6_2" index="2" speed="10.36" length="24.51" shape="78.40,253.60 79.35,246.95 82.20,242.20 86.95,239.35 93.60,238.40"/>
    </edge>
    <edge id=":intersection_2_1_9" function="internal">
        <lane id=":intersection_2_1_9_0" index="0" speed="6.51" length="9.03" shape="93.60,248.00 91.15,248.35 89.40,249.40 88.35,251.15 88.00,253.60"/>
        <lane id=":intersection_2_1_9_1" index="1" speed="7.33" length="11.73" shape="93.60,248.00 89.75,248.35 87.00,249.40 85.35,251.15 84.80,253.60"/>
        <lane id=":intersection_2_1_9_2" index="2" speed="8.10" length="14.57" shape="93.60,248.00 88.35,248.35 84.60,249.40 82.35,251.15 81.60,253.60"/>
    </edge>
    <edge id=":intersection_2_1_12" function="internal">
        <lane id=":intersection_2_1_12_0" index="0" speed="20.00" length="27.37" shape="93.60,244.80 85.50,245.30 80.00,246.40 74.50,247.50 66.40,248.00"/>
        <lane id=":intersection_2_1_12_1" index="1" speed="20.00" length="27.37" shape="93.60,244.80 66.40,244.80"/>
        <lane id=":intersection_2_1_12_2" index="2" speed="20.00" length="27.37" shape="93.60,244.80 85.50,244.30 80.00,243.20 74.50,242.10 66.40,241.60"/>
    </edge>
    <edge id=":intersection_2_1_15" function="internal">