<?xml version='1.0' encoding='utf-8'?>
<routes>
    <vType id="passenger" vClass="passenger" maxSpeed="11.11" carFollowModel="IDM" actionStepLength="1" tau="1.4" laneChangeModel="SL2015" />
    <vehicle id="0" type="passenger" depart="0.00">
        <route edges="road_2_5_3 road_2_4_0 road_3_4_1" />
    </vehicle>
    <vehicle id="1" type="passenger" depart="0.72">
        <route edges="road_3_0_1 road_3_1_1 road_3_2_0 road_4_2_1 road_4_3_1 road_4_4_0" />
    </vehicle>
    <vehicle id="2" type="passenger" depart="1.44">
        <route edges="road_0_4_0 road_1_4_0 road_2_4_3 road_2_3_3 road_2_2_0 road_3_2_0 road_4_2_0" />
    </vehicle>
    <vehicle id="3" type="passenger" depart="2.16">
        <route edges="road_1_0_1 road_1_1_1 road_1_2_1 road_1_3_1 road_1_4_2" />
    </vehicle>
    <vehicle id="4" type="passenger" depart="2.88">
        <route edges="road_4_0_1 road_4_1_1 road_4_2_2 road_3_2_2 road_2_2_1 road_2_3_1 road_2_4_2 road_1_4_1" />
    </vehicle>
    <vehicle id="5" type="passenger" depart="3.60">
        <route edges="road_1_5_3 road_1_4_0 road_2_4_3 road_2_3_0 road_3_3_0 road_4_3_3 road_4_2_0" />
    </vehicle>
    <vehicle id="6" type="passenger" depart="4.32">
        <route edges="road_0_1_0 road_1_1_0 road_2_1_3" />
    </vehicle>
    <vehicle id="7" type="passenger" depart="5.04">
        <route edges="road_5_4_2 road_4_4_1" />
    </vehicle>
    <vehicle id="8" type="passenger" depart="5.76">
        <route edges="road_0_1_0 road_1_1_1 road_1_2_1 road_1_3_2" />
    </vehicle>
    <vehicle id="9" type="passenger" depart="6.48">
        <route edges="road_1_0_1 road_1_1_1 road_1_2_0 road_2_2_0 road_3_2_0 road_4_2_1 road_4_3_1 road_4_4_0" />
    </vehicle>
    <vehicle id="10" type="passenger" depart="7.20">
        <route edges="road_5_2_2 road_4_2_1 road_4_3_1 road_4_4_0" />
    </vehicle>
    <vehicle id="11" type="passenger" depart="7.92">
        <route edges="road_2_0_1 road_2_1_1 road_2_2_2 road_1_2_2" />
    </vehicle>
    <vehicle id="12" type="passenger" depart="8.64">
        <route edges="road_5_1_2 road_4_1_1 road_4_2_0" />
    </vehicle>
    <vehicle id="13" type="passenger" depart="9.36">
        <route edges="road_3_5_3 road_3_4_0 road_4_4_1" />
    </vehicle>
    <vehicle id="14" type="passenger" depart="10.08">
        <route edges="road_4_0_1 road_4_1_2 road_3_1_2 road_2_1_2 road_1_1_2" />
    </vehicle>
    <vehicle id="15" type="passenger" depart="10.80">
        <route edges="road_5_1_2 road_4_1_2 road_3_1_2 road_2_1_1 road_2_2_1 road_2_3_2 road_1_3_1 road_1_4_1" />
    </vehicle>
    <vehicle id="16" type="passenger" depart="11.52">
        <route edges="road_4_0_1 road_4_1_1 road_4_2_1 road_4_3_1 road_4_4_1" />
    </vehicle>
    <vehicle id="17" type="passenger" depart="12.24">
        <route edges="road_0_3_0 road_1_3_3 road_1_2_2" />
    </vehicle>
    <vehicle id="18" type="passenger" depart="12.96">
        <route edges="road_0_2_0 road_1_2_0 road_2_2_0 road_3_2_3 road_3_1_3" />
    </vehicle>
    <vehicle id="19" type="passenger" depart="13.68">
        <route edges="road_1_0_1 road_1_1_0 road_2_1_0 road_3_1_0 road_4_1_0" />
    </vehicle>
    <vehicle id="20" type="passenger" depart="14.40">
        <route edges="road_4_5_3 road_4_4_3 road_4_3_2 road_3_3_2 road_2_3_2 road_1_3_2" />
    </vehicle>
    <vehicle id="21" type="passenger" depart="15.12">
        <route edges="road_3_5_3 road_3_4_2 road_2_4_2 road_1_4_1" />
    </vehicle>
    <vehicle id="22" type="passenger" depart="15.84">
        <route edges="road_3_0_1 road_3_1_0 road_4_1_1 road_4_2_1 road_4_3_1 road_4_4_0" />
    </vehicle>
    <vehicle id="23" type="passenger" depart="16.56">
        <route edges="road_5_2_2 road_4_2_2 road_3_2_2 road_2_2_3 road_2_1_2 road_1_1_3" />
    </vehicle>
    <vehicle id="24" type="passenger" depart="17.28">
        <route edges="road_2_5_3 road_2_4_2 road_1_4_1" />
    </vehicle>
    <vehicle id="25" type="passenger" depart="18.00">
        <route edges="road_0_1_0 road_1_1_0 road_2_1_0 road_3_1_0 road_4_1_1 road_4_2_0" />
    </vehicle>
    <vehicle id="26" type="passenger" depart="18.72">
        <route edges="road_3_5_3 road_3_4_2 road_2_4_2 road_1_4_1" />
    </vehicle>
    <vehicle id="27" type="passenger" depart="19.44">
        <route edges="road_4_5_3 road_4_4_3 road_4_3_3 road_4_2_2 road_3_2_3 road_3_1_3" />
    </vehicle>
    <vehicle id="28" type="passenger" depart="20.16">
        <route edges="road_2_5_3 road_2_4_3 road_2_3_3 road_2_2_2 road_1_2_3 road_1_1_2" />
    </vehicle>
    <vehicle id="29" type="passenger" depart="20.88">
        <route edges="road_0_2_0 road_1_2_0 road_2_2_0 road_3_2_0 road_4_2_1 road_4_3_1 road_4_4_0" />
    </vehicle>
    <vehicle id="30" type="passenger" depart="21.60">
        <route edges="road_5_3_2 road_4_3_2 road_3_3_3 road_3_2_3 road_3_1_3" />
    </vehicle>
    <vehicle id="31" type="passenger" depart="22.32">
        <route edges="road_5_1_2 road_4_1_1 road_4_2_1 road_4_3_1 road_4_4_2 road_3_4_1" />
    </vehicle>
    <vehicle id="32" type="passenger" depart="23.04">
        <route edges="road_0_3_0 road_1_3_3 road_1_2_2" />
    </vehicle>
    <vehicle id="33" type="passenger" depart="23.76">
        <route edges="road_1_5_3 road_1_4_0 road_2_4_0 road_3_4_0 road_4_4_0" />
    </vehicle>
    <vehicle id="34" type="passenger" depart="24.48">
        <route edges="road_5_1_2 road_4_1_1 road_4_2_1 road_4_3_0" />
    </vehicle>
    <vehicle id="35" type="passenger" depart="25.20">
        <route edges="road_5_2_2 road_4_2_2 road_3_2_2 road_2_2_2 road_1_2_1 road_1_3_2" />
    </vehicle>
    <vehicle id="36" type="passenger" depart="25.92">
        <route edges="road_1_0_1 road_1_1_1 road_1_2_0 road_2_2_3 road_2_1_2 road_1_1_3" />
    </vehicle>
    <vehicle id="37" type="passenger" depart="26.64">
        <route edges="road_5_1_2 road_4_1_1 road_4_2_1 road_4_3_1 road_4_4_0" />
    </vehicle>
    <vehicle id="38" type="passenger" depart="27.36">
        <route edges="road_2_0_1 road_2_1_0 road_3_1_0 road_4_1_0" />
    </vehicle>
    <vehicle id="39" type="passenger" depart="28.08">
        <route edges="road_0_3_0 road_1_3_0 road_2_3_0 road_3_3_0 road_4_3_1 road_4_4_0" />
    </vehicle>
    <vehicle id="40" type="passenger" depart="28.80">
        <route edges="road_5_2_2 road_4_2_1 road_4_3_1 road_4_4_1" />
    </vehicle>
    <vehicle id="41" type="passenger" depart="29.52">
        <route edges="road_5_1_2 road_4_1_1 road_4_2_1 road_4_3_1 road_4_4_0" />
    </vehicle>
    <vehicle id="42" type="passenger" depart="30.24">
        <route edges="road_0_1_0 road_1_1_0 road_2_1_0 road_3_1_0 road_4_1_1 road_4_2_0" />
    </vehicle>
    <vehicle id="43" type="passenger" depart="30.96">
        <route edges="road_1_5_3 road_1_4_0 road_2_4_0 road_3_4_0 road_4_4_0" />
    </vehicle>
    <vehicle id="44" type="passenger" depart="31.68">
        <route edges="road_5_1_2 road_4_1_1 road_4_2_1 road_4_3_1 road_4_4_0" />
    </vehicle>
    <vehicle id="45" type="passenger" depart="32.40">
        <route edges="road_5_1_2 road_4_1_2 road_3_1_1 road_3_2_1 road_3_3_2 road_2_3_1 road_2_4_2 road_1_4_1" />
    </vehicle>
    <vehicle id="46" type="passenger" depart="33.12">
        <route edges="road_5_1_2 road_4_1_2 road_3_1_2 road_2_1_2 road_1_1_1 road_1_2_2" />
    </vehicle>
    <vehicle id="47" type="passenger" depart="33.84">
        <route edges="road_5_2_2 road_4_2_1 road_4_3_0" />
    </vehicle>
    <vehicle id="48" type="passenger" depart="34.56">
        <route edges="road_1_0_1 road_1_1_0 road_2_1_0 road_3_1_1 road_3_2_1 road_3_3_0 road_4_3_0" />
    </vehicle>
    <vehicle id="49" type="passenger" depart="35.28">
        <route edges="road_2_5_3 road_2_4_2 road_1_4_1" />
    </vehicle>
    <vehicle id="50" type="passenger" depart="36.00">
        <route edges="road_5_1_2 road_4_1_1 road_4_2_1 road_4_3_2 road_3_3_2 road_2_3_2 road_1_3_2" />
    </vehicle>
    <vehicle id="51" type="passenger" depart="36.72">
        <route edges="road_0_1_0 road_1_1_1 road_1_2_1 road_1_3_2" />
    </vehicle>
    <vehicle id="52" type="passenger" depart="37.44">
        <route edges="road_1_5_3 road_1_4_0 road_2_4_0 road_3_4_0 road_4_4_0" />
    </vehicle>
    <vehicle id="53" type="passenger" depart="38.16">
        <route edges="road_5_4_2 road_4_4_3 road_4_3_2 road_3_3_2 road_2_3_2 road_1_3_1 road_1_4_1" />
    </vehicle>
    <vehicle id="54" type="passenger" depart="38.88">
        <route edges="road_3_5_3 road_3_4_2 road_2_4_2 road_1_4_2" />
    </vehicle>
    <vehicle id="55" type="passenger" depart="39.60">
        <route edges="road_5_4_2 road_4_4_3 road_4_3_2 road_3_3_3 road_3_2_3 road_3_1_3" />
    </vehicle>
    <vehicle id="56" type="passenger" depart="40.32">
        <route edges="road_5_3_2 road_4_3_2 road_3_3_3 road_3_2_2 road_2_2_2 road_1_2_2" />
    </vehicle>
    <vehicle id="57" type="passenger" depart="41.04">
        <route edges="road_5_4_2 road_4_4_3 road_4_3_3 road_4_2_2 road_3_2_2 road_2_2_2 road_1_2_2" />
    </vehicle>
    <vehicle id="58" type="passenger" depart="41.76">
        <route edges="road_5_4_2 road_4_4_2 road_3_4_2 road_2_4_2 road_1_4_1" />
    </vehicle>
    <vehicle id="59" type="passenger" depart="42.48">
        <route edges="road_0_3_0 road_1_3_3 road_1_2_3 road_1_1_0 road_2_1_3" />
    </vehicle>
    <vehicle id="60" type="passenger" depart="43.20">
        <route edges="road_4_5_3 road_4_4_2 road_3_4_2 road_2_4_2 road_1_4_1" />
    </vehicle>
    <vehicle id="61" type="passenger" depart="43.92">
        <route edges="road_3_5_3 road_3_4_2 road_2_4_1" />
    </vehicle>
    <vehicle id="62" type="passenger" depart="44.64">
        <route edges="road_2_0_1 road_2_1_0 road_3_1_1 road_3_2_1 road_3_3_1 road_3_4_1" />
    </vehicle>
    <vehicle id="63" type="passenger" depart="45.36">
        <route edges="road_1_0_1 road_1_1_0 road_2_1_1 road_2_2_0 road_3_2_0 road_4_2_0" />
    </vehicle>
    <vehicle id="64" type="passenger" depart="46.08">
        <route edges="road_0_1_0 road_1_1_0 road_2_1_1 road_2_2_1 road_2_3_0 road_3_3_0 road_4_3_1 road_4_4_0" />
    </vehicle>
    <vehicle id="65" type="passenger" depart="46.80">
        <route edges="road_3_0_1 road_3_1_1 road_3_2_0 road_4_2_0" />
    </vehicle>
    <vehicle id="66" type="passenger" depart="47.52">
        <route edges="road_4_5_3 road_4_4_3 road_4_3_3 road_4_2_3 road_4_1_3" />
    </vehicle>
    <vehicle id="67" type="passenger" depart="48.24">
        <route edges="road_2_0_1 road_2_1_2 road_1_1_3" />
    </vehicle>
    <vehicle id="68" type="passenger" depart="48.96">
        <route edges="road_4_0_1 road_4_1_2 road_3_1_2 road_2_1_1 road_2_2_1 road_2_3_1 road_2_4_2 road_1_4_1" />
    </vehicle>
    <vehicle id="69" type="passenger" depart="49.68">
        <route edges="road_1_5_3 road_1_4_0 road_2_4_3 road_2_3_0 road_3_3_0 road_4_3_0" />
    </vehicle>
    <vehicle id="70" type="passenger" depart="50.40">
        <route edges="road_4_5_3 road_4_4_2 road_3_4_2 road_2_4_2 road_1_4_1" />
    </vehicle>
    <vehicle id="71" type="passenger" depart="51.12">
        <route edges="road_1_5_3 road_1_4_2" />
    </vehicle>
    <vehicle id="72" type="passenger" depart="51.84">
        <route edges="road_2_0_1 road_2_1_1 road_2_2_1 road_2_3_1 road_2_4_2 road_1_4_1" />
    </vehicle>
    <vehicle id="73" type="passenger" depart="52.56">
        <route edges="road_0_3_0 road_1_3_1 road_1_4_2" />
    </vehicle>
    <vehicle id="74" type="passenger" depart="53.28">
        <route edges="road_5_3_2 road_4_3_3 road_4_2_3 road_4_1_3" />
    </vehicle>
    <vehicle id="75" type="passenger" depart="54.00">
        <route edges="road_5_3_2 road_4_3_3 road_4_2_3 road_4_1_0" />
    </vehicle>
    <vehicle id="76" type="passenger" depart="54.72">
        <route edges="road_1_5_3 road_1_4_0 road_2_4_0 road_3_4_3 road_3_3_3 road_3_2_3 road_3_1_3" />
    </vehicle>
    <vehicle id="77" type="passenger" depart="55.44">
        <route edges="road_0_1_0 road_1_1_1 road_1_2_1 road_1_3_1 road_1_4_1" />
    </vehicle>
    <vehicle id="78" type="passenger" depart="56.16">
        <route edges="road_2_5_3 road_2_4_0 road_3_4_1" />
    </vehicle>
    <vehicle id="79" type="passenger" depart="56.88">
        <route edges="road_4_0_1 road_4_1_2 road_3_1_2 road_2_1_3" />
    </vehicle>
    <vehicle id="80" type="passenger" depart="57.60">
        <route edges="road_2_5_3 road_2_4_3 road_2_3_2 road_1_3_2" />
    </vehicle>
    <vehicle id="81" type="passenger" depart="58.32">
        <route edges="road_2_5_3 road_2_4_0 road_3_4_0 road_4_4_0" />
    </vehicle>
    <vehicle id="82" type="passenger" depart="59.04">
        <route edges="road_5_1_2 road_4_1_2 road_3_1_2 road_2_1_1 road_2_2_2 road_1_2_2" />
    </vehicle>
    <vehicle id="83" type="passenger" depart="59.76">
        <route edges="road_0_2_0 road_1_2_1 road_1_3_0 road_2_3_1 road_2_4_1" />
    </vehicle>
    <vehicle id="84" type="passenger" depart="60.48">
        <route edges="road_3_5_3 road_3_4_2 road_2_4_2 road_1_4_1" />
    </vehicle>
    <vehicle id="85" type="passenger" depart="61.20">
        <route edges="road_5_1_2 road_4_1_1 road_4_2_0" />
    </vehicle>
    <vehicle id="86" type="passenger" depart="61.92">
        <route edges="road_4_0_1 road_4_1_2 road_3_1_2 road_2_1_1 road_2_2_1 road_2_3_2 road_1_3_2" />
    </vehicle>
    <vehicle id="87" type="passenger" depart="62.64">
        <route edges="road_0_4_0 road_1_4_3 road_1_3_3 road_1_2_3 road_1_1_2" />
    </vehicle>
    <vehicle id="88" type="passenger" depart="63.36">
        <route edges="road_1_0_1 road_1_1_0 road_2_1_1 road_2_2_1 road_2_3_1 road_2_4_1" />
    </vehicle>
    <vehicle id="89" type="passenger" depart="64.08">
        <route edges="road_5_2_2 road_4_2_2 road_3_2_3 road_3_1_2 road_2_1_2 road_1_1_3" />
    </vehicle>
    <vehicle id="90" type="passenger" depart="64.80">
        <route edges="road_2_0_1 road_2_1_0 road_3_1_0 road_4_1_0" />
    </vehicle>
    <vehicle id="91" type="passenger" depart="65.52">
        <route edges="road_0_4_0 road_1_4_0 road_2_4_3 road_2_3_3 road_2_2_0 road_3_2_0 road_4_2_0" />
    </vehicle>
    <vehicle id="92" type="passenger" depart="66.24">
        <route edges="road_3_0_1 road_3_1_1 road_3_2_1 road_3_3_2 road_2_3_1 road_2_4_2 road_1_4_1" />
    </vehicle>
    <vehicle id="93" type="passenger" depart="66.96">
        <route edges="road_4_0_1 road_4_1_2 road_3_1_2 road_2_1_2 road_1_1_2" />
    </vehicle>
    <vehicle id="94" type="passenger" depart="67.68">
        <route edges="road_5_1_2 road_4_1_1 road_4_2_0" />
    </vehicle>
    <vehicle id="95" type="passenger" depart="68.40">
        <route edges="road_0_2_0 road_1_2_1 road_1_3_1 road_1_4_2" />
    </vehicle>
    <vehicle id="96" type="passenger" depart="69.12">
        <route edges="road_0_4_0 road_1_4_0 road_2_4_0 road_3_4_0 road_4_4_1" />
    </vehicle>
    <vehicle id="97" type="passenger" depart="69.84">
        <route edges="road_3_0_1 road_3_1_2 road_2_1_2 road_1_1_2" />
    </vehicle>
    <vehicle id="98" type="passenger" depart="70.56">
        <route edges="road_1_0_1 road_1_1_1 road_1_2_0 road_2_2_0 road_3_2_0 road_4_2_1 road_4_3_0" />
    </vehicle>
    <vehicle id="99" type="passenger" depart="71.28">
        <route edges="road_2_5_3 road_2_4_3 road_2_3_0 road_3_3_0 road_4_3_0" />
    </vehicle>
    <vehicle id="100" type="passenger" depart="72.00">
        <route edges="road_4_0_1 road_4_1_1 road_4_2_1 road_4_3_1 road_4_4_1" />
    </vehicle>
    <vehicle id="101" type="passenger" depart="72.72">
        <route edges="road_3_5_3 road_3_4_0 road_4_4_1" />
    </vehicle>
    <vehicle id="102" type="passenger" depart="73.44">
        <route edges="road_5_2_2 road_4_2_3 road_4_1_0" />
    </vehicle>
    <vehicle id="103" type="passenger" depart="74.16">
        <route edges="road_4_5_3 road_4_4_2 road_3_4_2 road_2_4_1" />
    </vehicle>
    <vehicle id="104" type="passenger" depart="74.88">
        <route edges="road_5_1_2 road_4_1_2 road_3_1_3" />
    </vehicle>
    <vehicle id="105" type="passenger" depart="75.60">
        <route edges="road_5_2_2 road_4_2_2 road_3_2_1 road_3_3_0 road_4_3_3 road_4_2_0" />
    </vehicle>
    <vehicle id="106" type="passenger" depart="76.32">
        <route edges="road_2_5_3 road_2_4_2 road_1_4_1" />
    </vehicle>
    <vehicle id="107" type="passenger" depart="77.04">
        <route edges="road_1_0_1 road_1_1_0 road_2_1_0 road_3_1_0 road_4_1_3" />
    </vehicle>
    <vehicle id="108" type="passenger" depart="77.76">
        <route edges="road_5_1_2 road_4_1_2 road_3_1_2 road_2_1_1 road_2_2_1 road_2_3_1 road_2_4_1" />
    </vehicle>
    <vehicle id="109" type="passenger" depart="78.48">
        <route edges="road_3_5_3 road_3_4_2 road_2_4_2 road_1_4_1" />
    </vehicle>
    <vehicle id="110" type="passenger" depart="79.20">
        <route edges="road_0_2_0 road_1_2_1 road_1_3_1 road_1_4_1" />
    </vehicle>
    <vehicle id="111" type="passenger" depart="79.92">
        <route edges="road_1_0_1 road_1_1_1 road_1_2_1 road_1_3_1 road_1_4_1" />
    </vehicle>
    <vehicle id="112" type="passenger" depart="80.64">
        <route edges="road_3_0_1 road_3_1_1 road_3_2_2 road_2_2_2 road_1_2_2" />
    </vehicle>
    <vehicle id="113" type="passenger" depart="81.36">
        <route edges="road_1_0_1 road_1_1_0 road_2_1_0 road_3_1_1 road_3_2_0 road_4_2_0" />
    </vehicle>
    <vehicle id="114" type="passenger" depart="82.08">
        <route edges="road_4_5_3 road_4_4_3 road_4_3_3 road_4_2_3 road_4_1_2 road_3_1_2 road_2_1_2 road_1_1_2" />
    </vehicle>
    <vehicle id="115" type="passenger" depart="82.80">
        <route edges="road_2_0_1 road_2_1_0 road_3_1_3" />
    </vehicle>
    <vehicle id="116" type="passenger" depart="83.52">
        <route edges="road_2_0_1 road_2_1_1 road_2_2_1 road_2_3_2 road_1_3_2" />
    </vehicle>
    <vehicle id="117" type="passenger" depart="84.24">
        <route edges="road_2_5_3 road_2_4_0 road_3_4_0 road_4_4_0" />
    </vehicle>
    <vehicle id="118" type="passenger" depart="84.96">
        <route edges="road_3_5_3 road_3_4_3 road_3_3_0 road_4_3_3 road_4_2_0" />
    </vehicle>
    <vehicle id="119" type="passenger" depart="85.68">
        <route edges="road_5_2_2 road_4_2_2 road_3_2_1 road_3_3_0 road_4_3_3 road_4_2_0" />
    </vehicle>
    <vehicle id="120" type="passenger" depart="86.40">
        <route edges="road_2_0_1 road_2_1_2 road_1_1_2" />
    </vehicle>
    <vehicle id="121" type="passenger" depart="87.12">
        <route edges="road_1_5_3 road_1_4_0 road_2_4_3 road_2_3_3 road_2_2_0 road_3_2_0 road_4_2_0" />
    </vehicle>
    <vehicle id="122" type="passenger" depart="87.84">
        <route edges="road_5_2_2 road_4_2_1 road_4_3_1 road_4_4_1" />
    </vehicle>
    <vehicle id="123" type="passenger" depart="88.56">
        <route edges="road_2_5_3 road_2_4_3 road_2_3_0 road_3_3_0 road_4_3_3 road_4_2_0" />
    </vehicle>
    <vehicle id="124" type="passenger" depart="89.28">
        <route edges="road_3_0_1 road_3_1_0 road_4_1_0" />
    </vehicle>
    <vehicle id="125" type="passenger" depart="90.00">
        <route edges="road_1_0_1 road_1_1_1 road_1_2_1 road_1_3_2" />
    </vehicle>
    <vehicle id="126" type="passenger" depart="90.72">
        <route edges="road_2_5_3 road_2_4_3 road_2_3_3 road_2_2_3 road_2_1_2 road_1_1_2" />
    </vehicle>
    <vehicle id="127" type="passenger" depart="91.44">
        <route edges="road_1_5_3 road_1_4_0 road_2_4_3 road_2_3_0 road_3_3_0 road_4_3_3 road_4_2_3 road_4_1_3" />
    </vehicle>
    <vehicle id="128" type="passenger" depart="92.16">
        <route edges="road_2_0_1 road_2_1_1 road_2_2_2 road_1_2_2" />
    </vehicle>
    <vehicle id="129" type="passenger" depart="92.88">
        <route edges="road_2_5_3 road_2_4_3 road_2_3_3 road_2_2_2 road_1_2_2" />
    </vehicle>
    <vehicle id="130" type="passenger" depart="93.60">
        <route edges="road_3_5_3 road_3_4_3 road_3_3_2 road_2_3_3 road_2_2_2 road_1_2_3 road_1_1_2" />
    </vehicle>
    <vehicle id="131" type="passenger" depart="94.32">
        <route edges="road_2_0_1 road_2_1_1 road_2_2_0 road_3_2_1 road_3_3_1 road_3_4_1" />
    </vehicle>
    <vehicle id="132" type="passenger" depart="95.04">
        <route edges="road_0_1_0 road_1_1_0 road_2_1_0 road_3_1_0 road_4_1_3" />
    </vehicle>
    <vehicle id="133" type="passenger" depart="95.76">
        <route edges="road_0_3_0 road_1_3_3 road_1_2_0 road_2_2_3 road_2_1_3" />
    </vehicle>
    <vehicle id="134" type="passenger" depart="96.48">
        <route edges="road_0_1_0 road_1_1_1 road_1_2_1 road_1_3_1 road_1_4_2" />
    </vehicle>
    <vehicle id="135" type="passenger" depart="97.20">
        <route edges="road_1_0_1 road_1_1_1 road_1_2_1 road_1_3_1 road_1_4_1" />
    </vehicle>
    <vehicle id="136" type="passenger" depart="97.92">
        <route edges="road_5_1_2 road_4_1_2 road_3_1_1 road_3_2_1 road_3_3_2 road_2_3_2 road_1_3_1 road_1_4_2" />
    </vehicle>
    <vehicle id="137" type="passenger" depart="98.64">
        <route edges="road_5_1_2 road_4_1_1 road_4_2_1 road_4_3_0" />
    </vehicle>
    <vehicle id="138" type="passenger" depart="99.36">
        <route edges="road_1_0_1 road_1_1_1 road_1_2_0 road_2_2_3 road_2_1_2 road_1_1_3" />
    </vehicle>
    <vehicle id="139" type="passenger" depart="100.08">
        <route edges="road_0_1_0 road_1_1_0 road_2_1_0 road_3_1_3" />
    </vehicle>
    <vehicle id="140" type="passenger" depart="100.80">
        <route edges="road_5_4_2 road_4_4_2 road_3_4_2 road_2_4_2 road_1_4_2" />
    </vehicle>
    <vehicle id="141" type="passenger" depart="101.52">
        <route edges="road_4_0_1 road_4_1_1 road_4_2_1 road_4_3_0" />
    </vehicle>
    <vehicle id="142" type="passenger" depart="102.24">
        <route edges="road_4_0_1 road_4_1_1 road_4_2_0" />
    </vehicle>
    <vehicle id="143" type="passenger" depart="102.96">
        <route edges="road_5_3_2 road_4_3_2 road_3_3_2 road_2_3_2 road_1_3_2" />
    </vehicle>
    <vehicle id="144" type="passenger" depart="103.68">
        <route edges="road_0_1_0 road_1_1_1 road_1_2_2" />
    </vehicle>
    <vehicle id="145" type="passenger" depart="104.40">
        <route edges="road_0_3_0 road_1_3_0 road_2_3_3 road_2_2_3 road_2_1_0 road_3_1_0 road_4_1_3" />
    </vehicle>
    <vehicle id="146" type="passenger" depart="105.12">
        <route edges="road_3_0_1 road_3_1_1 road_3_2_1 road_3_3_2 road_2_3_2 road_1_3_2" />
    </vehicle>
    <vehicle id="147" type="passenger" depart="105.84">
        <route edges="road_4_5_3 road_4_4_3 road_4_3_3 road_4_2_0" />
    </vehicle>
    <vehicle id="148" type="passenger" depart="106.56">
        <route edges="road_0_4_0 road_1_4_0 road_2_4_0 road_3_4_3 road_3_3_3 road_3_2_3 road_3_1_0 road_4_1_0" />
    </vehicle>
    <vehicle id="149" type="passenger" depart="107.28">
        <route edges="road_5_1_2 road_4_1_2 road_3_1_2 road_2_1_1 road_2_2_2 road_1_2_2" />
    </vehicle>
    <vehicle id="150" type="passenger" depart="108.00">
        <route edges="road_5_1_2 road_4_1_1 road_4_2_1 road_4_3_1 road_4_4_1" />
    </vehicle>
    <vehicle id="151" type="passenger" depart="108.72">
        <route edges="road_0_2_0 road_1_2_3 road_1_1_2" />
    </vehicle>
    <vehicle id="152" type="passenger" depart="109.44">
        <route edges="road_1_5_3 road_1_4_0 road_2_4_3 road_2_3_3 road_2_2_3 road_2_1_0 road_3_1_0 road_4_1_3" />
    </vehicle>
    <vehicle id="153" type="passenger" depart="110.16">
        <route edges="road_5_4_2 road_4_4_2 road_3_4_2 road_2_4_2 road_1_4_2" />
    </vehicle>
    <vehicle id="154" type="passenger" depart="110.88">
        <route edges="road_4_5_3 road_4_4_2 road_3_4_2 road_2_4_3 road_2_3_3 road_2_2_3 road_2_1_2 road_1_1_3" />
    </vehicle>
    <vehicle id="155" type="passenger" depart="111.60">
        <route edges="road_4_5_3 road_4_4_3 road_4_3_3 road_4_2_3 road_4_1_0" />
    </vehicle>
    <vehicle id="156" type="passenger" depart="112.32">
        <route edges="road_0_2_0 road_1_2_0 road_2_2_0 road_3_2_0 road_4_2_0" />
    </vehicle>
    <vehicle id="157" type="passenger" depart="113.04">
        <route edges="road_5_2_2 road_4_2_3 road_4_1_0" />
    </vehicle>
    <vehicle id="158" type="passenger" depart="113.76">
        <route edges="road_0_3_0 road_1_3_0 road_2_3_0 road_3_3_0 road_4_3_1 road_4_4_1" />
    </vehicle>
    <vehicle id="159" type="passenger" depart="114.48">
        <route edges="road_5_1_2 road_4_1_2 road_3_1_2 road_2_1_1 road_2_2_1 road_2_3_1 road_2_4_2 road_1_4_2" />
    </vehicle>
    <vehicle id="160" type="passenger" depart="115.20">
        <route edges="road_2_5_3 road_2_4_2 road_1_4_2" />
    </vehicle>
    <vehicle id="161" type="passenger" depart="115.92">
        <route edges="road_3_0_1 road_3_1_1 road_3_2_2 road_2_2_1 road_2_3_1 road_2_4_2 road_1_4_2" />
    </vehicle>
    <vehicle id="162" type="passenger" depart="116.64">
        <route edges="road_5_2_2 road_4_2_1 road_4_3_0" />
    </vehicle>
    <vehicle id="163" type="passenger" depart="117.36">
        <route edges="road_0_2_0 road_1_2_0 road_2_2_1 road_2_3_0 road_3_3_0 road_4_3_1 road_4_4_1" />
    </vehicle>
    <vehicle id="164" type="passenger" depart="118.08">
        <route edges="road_3_5_3 road_3_4_0 road_4_4_3 road_4_3_0" />
    </vehicle>
    <vehicle id="165" type="passenger" depart="118.80">
        <route edges="road_4_5_3 road_4_4_3 road_4_3_3 road_4_2_2 road_3_2_3 road_3_1_2 road_2_1_3" />
    </vehicle>
    <vehicle id="166" type="passenger" depart="119.52">
        <route edges="road_4_5_3 road_4_4_3 road_4_3_2 road_3_3_1 road_3_4_0 road_4_4_1" />
    </vehicle>
    <vehicle id="167" type="passenger" depart="120.24">
        <route edges="road_1_0_1 road_1_1_0 road_2_1_0 road_3_1_1 road_3_2_1 road_3_3_0 road_4_3_0" />
    </vehicle>
    <vehicle id="168" type="passenger" depart="120.96">
        <route edges="road_3_0_1 road_3_1_1 road_3_2_2 road_2_2_1 road_2_3_1 road_2_4_1" />
    </vehicle>
    <vehicle id="169" type="passenger" depart="121.68">
        <route edges="road_2_5_3 road_2_4_3 road_2_3_0 road_3_3_0 road_4_3_3 road_4_2_0" />
    </vehicle>
    <vehicle id="170" type="passenger" depart="122.40">
        <route edges="road_1_0_1 road_1_1_0 road_2_1_1 road_2_2_1 road_2_3_0 road_3_3_0 road_4_3_0" />
    </vehicle>
    <vehicle id="171" type="passenger" depart="123.12">
        <route edges="road_5_1_2 road_4_1_2 road_3_1_2 road_2_1_2 road_1_1_3" />
    </vehicle>
    <vehicle id="172" type="passenger" depart="123.84">
        <route edges="road_5_2_2 road_4_2_1 road_4_3_2 road_3_3_2 road_2_3_1 road_2_4_2 road_1_4_1" />
    </vehicle>
    <vehicle id="173" type="passenger" depart="124.56">
        <route edges="road_2_5_3 road_2_4_3 road_2_3_0 road_3_3_0 road_4_3_3 road_4_2_3 road_4_1_0" />
    </vehicle>
    <vehicle id="174" type="passenger" depart="125.28">
        <route edges="road_2_0_1 road_2_1_2 road_1_1_2" />
    </vehicle>
    <vehicle id="175" type="passenger" depart="126.00">
        <route edges="road_5_2_2 road_4_2_2 road_3_2_1 road_3_3_2 road_2_3_2 road_1_3_2" />
    </vehicle>
    <vehicle id="176" type="passenger" depart="126.72">
        <route edges="road_1_0_1 road_1_1_0 road_2_1_0 road_3_1_1 road_3_2_1 road_3_3_0 road_4_3_0" />
    </vehicle>
    <vehicle id="177" type="passenger" depart="127.44">
        <route edges="road_1_5_3 road_1_4_0 road_2_4_0 road_3_4_0 road_4_4_0" />
    </vehicle>
    <vehicle id="178" type="passenger" depart="128.16">
        <route edges="road_4_5_3 road_4_4_3 road_4_3_2 road_3_3_2 road_2_3_2 road_1_3_1 road_1_4_1" />
    </vehicle>
    <vehicle id="179" type="passenger" depart="128.88">
        <route edges="road_0_1_0 road_1_1_0 road_2_1_1 road_2_2_1 road_2_3_0 road_3_3_0 road_4_3_1 road_4_4_1" />
    </vehicle>
    <vehicle id="180" type="passenger" depart="129.60">
        <route edges="road_0_2_0 road_1_2_0 road_2_2_0 road_3_2_0 road_4_2_0" />
    </vehicle>
    <vehicle id="181" type="passenger" depart="130.32">
        <route edges="road_3_0_1 road_3_1_1 road_3_2_0 road_4_2_0" />
    </vehicle>
    <vehicle id="182" type="passenger" depart="131.04">
        <route edges="road_4_5_3 road_4_4_3 road_4_3_3 road_4_2_3 road_4_1_3" />
    </vehicle>
    <vehicle id="183" type="passenger" depart="131.76">
        <route edges="road_3_0_1 road_3_1_1 road_3_2_0 road_4_2_1 road_4_3_0" />
    </vehicle>
    <vehicle id="184" type="passenger" depart="132.48">
        <route edges="road_0_2_0 road_1_2_1 road_1_3_2" />
    </vehicle>
    <vehicle id="185" type="passenger" depart="133.20">
        <route edges="road_4_5_3 road_4_4_2 road_3_4_2 road_2_4_2 road_1_4_1" />
    </vehicle>
    <vehicle id="186" type="passenger" depart="133.92">
        <route edges="road_3_5_3 road_3_4_2 road_2_4_1" />
    </vehicle>
    <vehicle id="187" type="passenger" depart="134.64">
        <route edges="road_3_0_1 road_3_1_2 road_2_1_1 road_2_2_1 road_2_3_2 road_1_3_1 road_1_4_2" />
    </vehicle>
    <vehicle id="188" type="passenger" depart="135.36">
        <route edges="road_4_5_3 road_4_4_3 road_4_3_2 road_3_3_2 road_2_3_2 road_1_3_1 road_1_4_1" />
    </vehicle>
    <vehicle id="189" type="passenger" depart="136.08">
        <route edges="road_4_5_3 road_4_4_2 road_3_4_2 road_2_4_2 road_1_4_1" />
    </vehicle>
    <vehicle id="190" type="passenger" depart="136.80">
        <route edges="road_1_0_1 road_1_1_1 road_1_2_2" />
    </vehicle>
    <vehicle id="191" type="passenger" depart="137.52">
        <route edges="road_0_4_0 road_1_4_3 road_1_3_3 road_1_2_2" />
    </vehicle>
    <vehicle id="192" type="passenger" depart="138.24">
        <route edges="road_3_0_1 road_3_1_1 road_3_2_0 road_4_2_0" />
    </vehicle>
    <vehicle id="193" type="passenger" depart="138.96">
        <route edges="road_0_4_0 road_1_4_3 road_1_3_2" />
    </vehicle>
    <vehicle id="194" type="passenger" depart="139.68">
        <route edges="road_2_5_3 road_2_4_3 road_2_3_3 road_2_2_0 road_3_2_0 road_4_2_0" />
    </vehicle>
    <vehicle id="195" type="passenger" depart="140.40">