<configuration>
	<input>
		<net-file value="sumo4x4_3lane.net.xml"/>
		<route-files value="sumo4x4_3lane.rou.xml"/>
	</input>
	<time>
		<begin value="0"/>
		<end value="3600"/>
	</time>
</configuration>
